software/pst_legacy/pstdat/d2asbegpindmotorrogers.m
% Two Area Test Case
% sub transient generators with static exciters, turbine/governors
% 50% constant current active loads
% load modulation
% with power system stabilizers

disp('Two-area test case with subtransient generator models')
disp('Static exciters')
disp('turbine/governors')
% bus data format
% bus: 
% col1 number
% col2 voltage magnitude(pu)
% col3 voltage angle(degree)
% col4 p_gen(pu)
% col5 q_gen(pu),
% col6 p_load(pu)
% col7 q_load(pu)
% col8 G shunt(pu)
% col9 B shunt(pu)
% col10 bus_type
%       bus_type - 1, swing bus
%               - 2, generator bus (PV bus)
%               - 3, load bus (PQ bus)
% col11 q_gen_max(pu)
% col12 q_gen_min(pu)
% col13 v_rated (kV)
% col14 v_max  pu
% col15 v_min  pu


bus = [...
    1  1.03    18.5  7.00   1.61  0.00  0.00  0.00  0.00 1  5.0  -1.0  22.0  1.1  .9;
	2  1.01     8.80  7.00  1.76  0.00  0.00  0.00  0.00 2  5.0  -1.0  22.0  1.1  .9;
	3  0.9781  -6.1   0.00  0.00  0.00  0.00  0.00  3.00 3  0.0   0.0  230.0 1.5  .5;
    4  0.95   -10    0.00   0.00  9.76  1.00  0.00  0.00 3  0.0   0.0  115.0 1.05 .95;
   10  1.0103  12.1  0.00   0.00  0.00  0.00  0.00  0.00 3  0.0   0.0  230.0 1.5  .5;
   11  1.03    -6.8  7.16   1.49  0.00  0.00  0.00  0.00 2  5.0  -1.0  22.0  1.1  .9;
   12  1.01   -16.9  7.00   1.39  0.00  0.00  0.00  0.00 2  5.0  -1.0  22.0  1.1  .9;
   13  0.9899 -31.8  0.00   0.00  0.00  0.00  0.00  5.00 3  0.0   0.0  230.0 1.5  .5;
   14  0.95   -35    0.00   0.00  17.65 1.00  0.00  0.00 3  0.0   0.0  115.0 1.05 .95;
   20  0.9876   2.1  0.00   0.00  0.00  0.00  0.00  0.00 3  0.0   0.0  230.0 1.5  .5;
  101  1.00   -19.3  0.00   0.00  0.00  0.00  0.00  2.00 3  2.0   0.0  500.0 1.5  .5;
  110  1.0125 -13.4  0.00   0.00  0.00  0.00  0.00  0.00 3  0.0   0.0  230.0 1.5  .5;
  120  0.9938 -23.6  0.00   0.00  0.00  0.00  0.00  0.00 3  0.0   0.0  230.0 1.5  .5;
];


% line data format
% line: 
%      col1 	from bus
%      col2 	to bus 
%      col3 	resistance(pu)
%      col4 	reactance(pu)
%      col5 	line charging(pu)
%      col6 	tap ratio
%      col7 	tap phase
%      col8 	tapmax 
%      col9 	tapmin
%      col10	tapsize

line = [...
1   10  0.0     0.0167   0.00    1.0  0. 0.  0.  0.;
2   20  0.0     0.0167   0.00    1.0  0. 0.  0.  0.;
3    4  0.0     0.005     0.00   1.0  0. 1.2 0.8 0.02;
3   20  0.001   0.0100   0.0175  1.0  0. 0.  0.  0.;
3   101 0.011   0.110    0.1925  1.0  0. 0.  0.  0.;
3   101 0.011   0.110    0.1925  1.0  0. 0.  0.  0.;
10  20  0.0025  0.025    0.0437  1.0  0. 0.  0.  0.;
11  110 0.0     0.0167   0.0     1.0  0. 0.  0.  0.;
12  120 0.0     0.0167   0.0     1.0  0. 0.  0.  0.;
13  101 0.011   0.11     0.1925  1.0  0. 0.  0.  0.;
13  101 0.011   0.11     0.1925  1.0  0. 0.  0.  0.;
13   14  0.0    0.005    0.00    1.0  0. 1.2 0.8 0.02;
13  120 0.001   0.01     0.0175  1.0  0. 0.  0.  0.;
110 120 0.0025  0.025    0.0437  1.0  0. 0.  0.  0.];

% Machine data format
% Machine data format
%       1. machine number,
%       2. bus number,
%       3. base mva,
%       4. leakage reactance x_l(pu),
%       5. resistance r_a(pu),
%       6. d-axis sychronous reactance x_d(pu),
%       7. d-axis transient reactance x'_d(pu),
%       8. d-axis subtransient reactance x"_d(pu),
%       9. d-axis open-circuit time constant T'_do(sec),
%      10. d-axis open-circuit subtransient time constant
%                T"_do(sec),
%      11. q-axis sychronous reactance x_q(pu),
%      12. q-axis transient reactance x'_q(pu),
%      13. q-axis subtransient reactance x"_q(pu),
%      14. q-axis open-circuit time constant T'_qo(sec),
%      15. q-axis open circuit subtransient time constant
%                T"_qo(sec),
%      16. inertia constant H(sec),
%      17. damping coefficient d_o(pu),
%      18. dampling coefficient d_1(pu),
%      19. bus number
%
% note: all the following machines use sub-transient model
mac_con = [ ...

1 1 900 0.200  0.00    1.8  0.30  0.25 8.00  0.03...
                       1.7  0.55  0.24 0.4   0.05...
                       6.5  0  0  1  0.0654  0.5743;
2 2 900 0.200  0.00    1.8  0.30  0.25 8.00  0.03...
                       1.7  0.55  0.25 0.4   0.05...
                       6.5  0  0  2  0.0654  0.5743;
3 11 900 0.200  0.00   1.8  0.30  0.25 8.00  0.03...
                       1.7  0.55  0.24 0.4   0.05...
                       6.5  0  0  3  0.0654  0.5743;
4 12 900 0.200  0.00   1.8  0.30  0.25 8.00  0.03...
                       1.7  0.55  0.25 0.4   0.05...
                       6.5  0  0  4  0.0654  0.5743];
% simple exciter model, type 0; there are three exciter models
exc_con = [...
0 1 0.01 200.0  0.05     0     0    5.0  -5.0...
    0    0      0     0     0    0    0      0      0    0   0;
0 2 0.01 200.0  0.05     0     0    5.0  -5.0...
    0    0      0     0     0    0    0      0      0    0   0;
0 3 0.01 200.0  0.05     0     0    5.0  -5.0...
    0    0      0     0     0    0    0      0      0    0   0;
0 4 0.01 200.0  0.05     0     0    5.0  -5.0...
    0    0      0     0     0    0    0      0      0    0   0];
% power system stabilizer model
%	col1	type 1 speed input; 2 power input
%	col2	generator number
%	col3	pssgain*washout time constant
%	col4	washout time constant
%	col5	first lead time constant
%	col6	first lag time constant
%	col7	second lead time constant
%	col8	second lag time constant
% 	col9	maximum output limit
%	col10	minimum output limit
pss_con = [...
     1  1  100  10 0.05 0.015 0.08 0.01 0.2 -0.05;
     1  2  100  10 0.05 0.015 0.08 0.01 0.2 -0.05;
     1  3  100  10 0.05 0.015 0.08 0.01 0.2 -0.05;
     1  4  100  10 0.05 0.015 0.08 0.01 0.2 -0.05
 ];


% governor model
% tg_con matrix format
%column	       data			unit
%  1	turbine model number (=1)	
%  2	machine number	
%  3	speed set point   wf		pu
%  4	steady state gain 1/R		pu
%  5	maximum power order  Tmax	pu on generator base
%  6	servo time constant   Ts	sec
%  7	governor time constant  Tc	sec
%  8	transient gain time constant T3	sec
%  9	HP section time constant   T4	sec
% 10	reheater time constant    T5	sec

tg_con = [...
1  1  1  25.0  1.0  0.1  0.5 0.0 1.25 5.0;      
1  2  1  25.0  1.0  0.1  0.5 0.0 1.25 5.0;
1  3  1  25.0  1.0  0.1  0.5 0.0 1.25 5.0;
1  4  1  25.0  1.0  0.1  0.5 0.0 1.25 5.0;
];
% induction motor data
% 1. Motor Number
% 2. Bus Number
% 3. Motor MVA Base
% 4. rs pu
% 5. xs pu - stator leakage reactance
% 6. Xm pu - magnetizing reactance
% 7. rr pu 
% 8. xr pu - rotor leakage reactance
% 9. H  s  - motor plus load inertia constant
% 10. rr1 pu - second cage resistance
% 11. xr1 pu - intercage reactance
% 12. dbf    - deepbar factor
% 13. isat pu - saturation current
% 15. fraction of bus power drawn by motor ( if zero motor statrts at t=0)

ind_con = [ ...
  1  4   150 .0229  .1153  3.469  .0102  .0877   1.0 0       0       3.469 3 0 .10;% deep bar and leakage inductance saturation
  2  14  150 .03274 .08516 3.7788 .06164 .06005  1.0 0.01354 0.07517 0     3 0 .10;% double cage and leakage indctance saturation 
];

% Motor Load Data 
% format for motor load data - mld_con
% 1 motor number
% 2 bus number
% 3 stiction load pu on motor base (f1)
% 4 stiction load coefficient (i1)
% 5 external load  pu on motor base(f2)
% 6 external load coefficient (i2)
% 
% load has the form
% tload = f1*slip^i1 + f2*(1-slip)^i2
mld_con = [ ...
    1  4   .1  1  .8  0;
    2  14  .1  1  .8  0;
];
% 	col1	bus number
%	col2 	proportion of constant active power load
%	col3	proportion of constant reactive power load
%	col4 	proportion of constant active current load
%	col5	proportion of constant reactive current load
load_con = [3  0  0  0  0;%constant impedance 
            4  0  0  0  0;
            13 0  0  0  0;
            14 0  0  0  0;
            101 0 0 0 0;
];
disp('50% constant current load')
%disp('load modulation')
%active and reactive load modulation enabled
% 	col1	load number
%	col2	bus number
%	col3	MVA rating
%	col4	maximum output limit pu
%	col4	minimum output limit pu
%	col6	Time constant
lmod_con = [...
1 4  100 1 -1 1 0.05;
2 14 100 1 -1 1 0.05;
];

rlmod_con = [...
1 4   100 1  -1  1  0.05;
2 14  100 1  -1  1  0.05;
];
%svc
% col 1           svc number
% col 2           bus number
% col 3           svc base MVA
% col 4           maximum susceptance Bcvmax(pu)
% col 5           minimum susceptance Bcvmin(pu)
% col 6           regulator gain
% col 7		  regulator time constant (s)

svc_con = [...
    1  101   200   1  -1   10  0.05 0.65 0.2;
    %2    3   200   1   -1   10   0.05  0.65 0.2;
    %3    13  200   1   -1   10   0.05  0.65 0.2;
];

%Switching file defines the simulation control
% row 1 col1  simulation start time (s) (cols 2 to 6 zeros)
%       col7  initial time step (s)
% row 2 col1  fault application time (s)
%       col2  bus number at which fault is applied
%       col3  bus number defining far end of faulted line
%       col4  zero sequence impedance in pu on system base
%       col5  negative sequence impedance in pu on system base
%       col6  type of fault  - 0 three phase
%                            - 1 line to ground
%                            - 2 line-to-line to ground
%                            - 3 line-to-line
%                            - 4 loss of line with no fault
%                            - 5 loss of load at bus
%                            - 6 no action
%       col7  time step for fault period (s)
% row 3 col1  near end fault clearing time (s) (cols 2 to 6 zeros)
%       col7  time step for second part of fault (s)
% row 4 col1  far end fault clearing time (s) (cols 2 to 6 zeros)
%       col7  time step for fault cleared simulation (s)
% row 5 col1  time to change step length (s)
%       col7  time step (s)
%
%
%
% row n col1 finishing time (s)  (n indicates that intermediate rows may be inserted)

sw_con = [...
0    0    0    0    0    0    0.01;%sets intitial time step
0.1  3    101  0    0    0    0.001; % 3 ph fault
0.15 0    0    0    0    0    0.001; %clear near end
0.20 0    0    0    0    0    0.001; %clear remote end
%0.50 0    0    0    0    0    0.01; % increase time step 
1.0  0    0    0    0    0    0.001; % increase time step
5.0  0    0    0    0    0    0]; % end simulation
%fpos=60;
%ibus_con = [0 1 1 1];% sets generators 2, 3 and 4 to be infinite buses 
%                       behind source impedance in small signal stability model

